*SPEF "IEEE 1481-1998"
*DESIGN "processor"
*DATE "Mon May 30 20:15:03 2022"
*VENDOR "Cadence Design Systems, Inc."
*PROGRAM "Innovus"
*VERSION "20.10-p004_1"
*DESIGN_FLOW "PIN_CAP NONE" "NAME_SCOPE LOCAL"
*DIVIDER /
*DELIMITER :
*BUS_DELIMITER []
*T_UNIT 1 NS
*C_UNIT 1 PF
*R_UNIT 1 OHM
*L_UNIT 1 HENRY

// MMMC spef file for corner 'rc_worst'

*NAME_MAP

*1 ALU/FE_RN_0_0
*2 data_mem/FE_OFN31_n1274
*3 data_mem/FE_OFN30_n1253
*4 data_mem/FE_OFN29_n1232
*5 data_mem/FE_OFN28_n1211
*6 data_mem/FE_OFN27_n1190
*7 data_mem/FE_OFN26_n141
*8 data_mem/FE_OFN25_n87
*9 data_mem/FE_OFN24_n53
*10 data_mem/FE_OFN23_n1464
*11 data_mem/FE_OFN22_n1442
*12 data_mem/FE_OFN21_n7
*13 data_mem/FE_OFN20_n6
*14 data_mem/FE_OFN19_n5
*15 data_mem/FE_OFN18_n4
*16 data_mem/FE_OFN17_n3
*17 data_mem/FE_OFN16_n1
*18 data_mem/FE_OFN15_alu_out_4
*19 data_mem/FE_OFN14_exmem_mem_write
*20 FE_OFN13_clk
*21 FE_OFN12_clk
*22 FE_OFN11_clk
*23 register/FE_OFN10_clk
*24 FE_OFN9_clk
*25 data_mem/FE_OFN8_clk
*26 data_mem/FE_OFN6_clk
*27 FE_OFN5_clk
*28 data_mem/FE_OFN4_clk
*29 data_mem/FE_OFN2_clk
*30 data_mem/FE_OFN1_clk
*31 data_mem/FE_OFN0_clk
*32 ALU/FE_DBTN3_forward_out1_0
*33 ALU/FE_DBTN2_alumux_out_6
*34 ALU/FE_DBTN1_alumux_out_3
*35 ALU/FE_DBTN0_alumux_out_1
*36 aluout[7]
*37 aluout[6]
*38 aluout[5]
*39 aluout[4]
*40 aluout[3]
*41 aluout[2]
*42 aluout[1]
*43 aluout[0]
*44 clk
*45 reset
*46 idex_mem_read
*47 idex_flush
*48 memwb_reg_write
*49 control_alu_src
*50 control_reg_dst
*51 control_mem_rd
*52 control_mem_wr
*53 mux_hazard_alu_src
*54 mux_hazard_reg_write
*55 mux_hazard_mem_to_reg
*56 mux_hazard_mem_write
*57 idex_alu_src
*58 idex_reg_dst
*59 idex_mem_write
*60 idex_reg_write
*61 idex_mem_to_reg
*62 exmem_mem_read
*63 exmem_mem_write
*64 exmem_reg_write
*65 exmem_mem_to_reg
*66 memwb_mem_to_reg
*67 pc_in[7]
*68 pc_in[6]
*69 pc_in[5]
*70 pc_in[4]
*71 pc_in[3]
*72 pc_in[2]
*73 pc_in[1]
*74 pc_in[0]
*75 pc_out[7]
*76 pc_out[6]
*77 pc_out[5]
*78 pc_out[4]
*79 pc_out[3]
*80 pc_out[2]
*81 pc_out[1]
*82 pc_out[0]
*83 instruction_memory_out[22]
*84 instruction_memory_out[21]
*85 instruction_memory_out[17]
*86 instruction_memory_out[15]
*87 instruction_memory_out[13]
*88 instruction_memory_out[12]
*89 instruction_memory_out[8]
*90 instruction_memory_out[7]
*91 instruction_memory_out[6]
*92 instruction_memory_out[5]
*93 instruction_memory_out[4]
*94 instruction_memory_out[3]
*95 instruction_memory_out[1]
*96 instruction_memory_out[0]
*97 instruction_memory_out_ifid[22]
*98 instruction_memory_out_ifid[21]
*99 instruction_memory_out_ifid[17]
*100 instruction_memory_out_ifid[15]
*101 instruction_memory_out_ifid[13]
*102 instruction_memory_out_ifid[12]
*103 instruction_memory_out_ifid[9]
*104 instruction_memory_out_ifid[8]
*105 instruction_memory_out_ifid[7]
*106 instruction_memory_out_ifid[6]
*107 instruction_memory_out_ifid[5]
*108 instruction_memory_out_ifid[4]
*109 instruction_memory_out_ifid[3]
*110 instruction_memory_out_ifid[2]
*111 instruction_memory_out_ifid[1]
*112 instruction_memory_out_ifid[0]
*113 wb_data[7]
*114 wb_data[6]
*115 wb_data[5]
*116 wb_data[4]
*117 wb_data[3]
*118 wb_data[2]
*119 wb_data[1]
*120 wb_data[0]
*121 register_read_data1[7]
*122 register_read_data1[6]
*123 register_read_data1[5]
*124 register_read_data1[4]
*125 register_read_data1[3]
*126 register_read_data1[2]
*127 register_read_data1[1]
*128 register_read_data1[0]
*129 register_read_data2[7]
*130 register_read_data2[6]
*131 register_read_data2[5]
*132 register_read_data2[4]
*133 register_read_data2[3]
*134 register_read_data2[2]
*135 register_read_data2[1]
*136 register_read_data2[0]
*137 control_alu_opcode[2]
*138 control_alu_opcode[1]
*139 control_alu_opcode[0]
*140 control_imm_select[1]
*141 control_imm_select[0]
*142 imm_out[2]
*143 imm_out[1]
*144 imm_out[0]
*145 mux_hazard_alu_opcode[2]
*146 mux_hazard_alu_opcode[1]
*147 mux_hazard_alu_opcode[0]
*148 idex_Rdata1[7]
*149 idex_Rdata1[6]
*150 idex_Rdata1[5]
*151 idex_Rdata1[4]
*152 idex_Rdata1[3]
*153 idex_Rdata1[2]
*154 idex_Rdata1[1]
*155 idex_Rdata1[0]
*156 idex_imm[2]
*157 idex_imm[1]
*158 idex_imm[0]
*159 forward_mux_top[1]
*160 forward_mux_top[0]
*161 forward_out1[7]
*162 forward_out1[6]
*163 forward_out1[5]
*164 forward_out1[4]
*165 forward_out1[3]
*166 forward_out1[2]
*167 forward_out1[1]
*168 forward_out1[0]
*169 idex_Rdata2[7]
*170 idex_Rdata2[6]
*171 idex_Rdata2[5]
*172 idex_Rdata2[4]
*173 idex_Rdata2[3]
*174 idex_Rdata2[2]
*175 idex_Rdata2[1]
*176 idex_Rdata2[0]
*177 forward_mux_bottom[1]
*178 forward_mux_bottom[0]
*179 forward_out2[7]
*180 forward_out2[6]
*181 forward_out2[5]
*182 forward_out2[4]
*183 forward_out2[3]
*184 forward_out2[2]
*185 forward_out2[1]
*186 forward_out2[0]
*187 idex_Rd[2]
*188 idex_Rd[1]
*189 idex_Rd[0]
*190 idex_Rs1[2]
*191 idex_Rs1[0]
*192 idex_Rs2[2]
*193 idex_Rs2[1]
*194 idex_funct3[1]
*195 idex_funct3[0]
*196 idex_alu_opcode[2]
*197 idex_alu_opcode[1]
*198 idex_alu_opcode[0]
*199 alu_out[7]
*200 alu_out[6]
*201 alu_out[5]
*202 alu_out[4]
*203 alu_out[3]
*204 alu_out[2]
*205 alu_out[1]
*206 alu_out[0]
*207 regdstmux_out[2]
*208 regdstmux_out[1]
*209 regdstmux_out[0]
*210 exmem_Rdata2[7]
*211 exmem_Rdata2[6]
*212 exmem_Rdata2[5]
*213 exmem_Rdata2[4]
*214 exmem_Rdata2[3]
*215 exmem_Rdata2[2]
*216 exmem_Rdata2[1]
*217 exmem_Rdata2[0]
*218 exmem_Rd[2]
*219 exmem_Rd[1]
*220 exmem_Rd[0]
*221 alumux_out[7]
*222 alumux_out[6]
*223 alumux_out[5]
*224 alumux_out[4]
*225 alumux_out[3]
*226 alumux_out[2]
*227 alumux_out[1]
*228 alumux_out[0]
*229 memwb_Rd[2]
*230 memwb_Rd[1]
*231 memwb_Rd[0]
*232 data_memory_out[7]
*233 data_memory_out[6]
*234 data_memory_out[5]
*235 data_memory_out[4]
*236 data_memory_out[3]
*237 data_memory_out[2]
*238 data_memory_out[1]
*239 data_memory_out[0]
*240 memwb_alu_out[7]
*241 memwb_alu_out[6]
*242 memwb_alu_out[5]
*243 memwb_alu_out[4]
*244 memwb_alu_out[3]
*245 memwb_alu_out[2]
*246 memwb_alu_out[1]
*247 memwb_alu_out[0]
*248 memwb_data_memory_out[7]
*249 memwb_data_memory_out[6]
*250 memwb_data_memory_out[5]
*251 memwb_data_memory_out[4]
*252 memwb_data_memory_out[3]
*253 memwb_data_memory_out[2]
*254 memwb_data_memory_out[1]
*255 memwb_data_memory_out[0]
*256 pc/N3
*257 pc/N4
*258 pc/N5
*259 pc/N6
*260 pc/N7
*261 pc/N8
*262 pc/N9
*263 pc/N10
*264 pc/n15
*265 pc/n16
*266 pc/n17
*267 pc/n18
*268 pc/n19
*269 pc/n20
*270 pc/n21
*271 pc/n22
*272 pc/n23
*273 pc/n24
*274 pc/n3
*275 pc/add_150_S2_carry[7]
*276 pc/add_150_S2_carry[6]
*277 pc/add_150_S2_carry[5]
*278 pc/add_150_S2_carry[4]
*279 pc/add_150_S2_carry[3]
*280 pc/add_150_S2_carry[2]
*281 pc/add_150_S2_carry[1]
*282 instruction_mem/n1
*283 instruction_mem/n2
*284 instruction_mem/n3
*285 instruction_mem/n7
*286 instruction_mem/n8
*287 instruction_mem/n10
*288 instruction_mem/n21
*289 instruction_mem/n22
*290 instruction_mem/n60
*291 instruction_mem/n63
*292 instruction_mem/n65
*293 instruction_mem/n66
*294 instruction_mem/n73
*295 instruction_mem/n57
*296 instruction_mem/n59
*297 instruction_mem/n62
*298 IFID/n2
*299 IFID/n3
*300 IFID/n4
*301 IFID/n6
*302 IFID/n7
*303 IFID/n8
*304 IFID/n9
*305 IFID/n10
*306 IFID/n11
*307 IFID/n15
*308 IFID/n16
*309 IFID/n18
*310 IFID/n20
*311 IFID/n24
*312 IFID/n25
*313 IFID/n43
*314 IFID/n44
*315 IFID/n45
*316 IFID/n46
*317 IFID/n47
*318 IFID/n48
*319 IFID/n49
*320 IFID/n50
*321 IFID/n51
*322 IFID/n52
*323 IFID/n55
*324 IFID/n56
*325 IFID/n58
*326 IFID/n60
*327 IFID/n64
*328 IFID/n65
*329 IFID/n83
*330 IFID/n84
*331 IFID/n85
*332 IFID/n86
*333 IFID/n87
*334 IFID/n88
*335 IFID/n89
*336 IFID/n90
*337 IFID/n91
*338 IFID/n92
*339 IFID/n95
*340 IFID/n96
*341 IFID/n98
*342 IFID/n100
*343 IFID/n104
*344 IFID/n105
*345 IFID/n125
*346 hazard/n1
*347 hazard/n2
*348 hazard/n3
*349 hazard/n5
*350 hazard/n8
*351 hazard/n11
*352 hazard/n12
*353 hazard/n13
*354 hazard/n14
*355 hazard/n15
*356 hazard/n16
*357 register/N24
*358 register/N25
*359 register/N26
*360 register/N27
*361 register/N28
*362 register/N29
*363 register/N30
*364 register/N31
*365 register/N48
*366 register/N49
*367 register/N50
*368 register/N51
*369 register/N52
*370 register/N53
*371 register/N54
*372 register/N55
*373 register/n1
*374 register/n11
*375 register/n13
*376 register/n15
*377 register/n17
*378 register/n19
*379 register/n21
*380 register/n23
*381 register/n43
*382 register/n45
*383 register/n46
*384 register/n47
*385 register/n119
*386 register/n120
*387 register/n121
*388 register/n122
*389 register/n123
*390 register/n124
*391 register/n125
*392 register/n126
*393 register/n127
*394 register/n128
*395 register/n129
*396 register/n130
*397 register/n131
*398 register/n132
*399 register/n133
*400 register/n134
*401 register/n135
*402 register/n136
*403 register/n137
*404 register/n138
*405 register/n139
*406 register/n140
*407 register/n141
*408 register/n142
*409 register/n143
*410 register/n144
*411 register/n145
*412 register/n146
*413 register/n147
*414 register/n148
*415 register/n149
*416 register/n150
*417 register/n151
*418 register/n152
*419 register/n153
*420 register/n154
*421 register/n155
*422 register/n156
*423 register/n157
*424 register/n158
*425 register/n159
*426 register/n160
*427 register/n161
*428 register/n162
*429 register/n163
*430 register/n164
*431 register/n165
*432 register/n166
*433 register/n167
*434 register/n168
*435 register/n169
*436 register/n170
*437 register/n171
*438 register/n172
*439 register/n173
*440 register/n174
*441 register/n175
*442 register/n176
*443 register/n177
*444 register/n178
*445 register/n179
*446 register/n180
*447 register/n181
*448 register/n182
*449 register/n183
*450 register/n184
*451 register/n185
*452 register/n186
*453 register/n187
*454 register/n188
*455 register/n189
*456 register/n190
*457 register/n191
*458 register/n192
*459 register/n193
*460 register/n194
*461 register/n195
*462 register/n196
*463 register/n197
*464 register/n198
*465 register/n199
*466 register/n200
*467 register/n201
*468 register/n202
*469 register/n203
*470 register/n204
*471 register/n205
*472 register/n206
*473 register/n207
*474 register/n208
*475 register/n209
*476 register/n210
*477 register/n211
*478 register/n212
*479 register/n213
*480 register/n214
*481 register/n215
*482 register/n216
*483 register/n217
*484 register/n218
*485 register/n219
*486 register/n220
*487 register/n221
*488 register/n222
*489 register/n223
*490 register/n224
*491 register/n225
*492 register/n226
*493 register/n227
*494 register/n228
*495 register/n229
*496 register/n230
*497 register/n231
*498 register/n232
*499 register/n233
*500 register/n234
*501 register/n235
*502 register/n236
*503 register/n237
*504 register/n238
*505 register/n239
*506 register/n240
*507 register/n241
*508 register/n242
*509 register/n243
*510 register/n244
*511 register/n245
*512 register/n246
*513 register/n2
*514 register/n3
*515 register/n4
*516 register/n5
*517 register/n6
*518 register/n7
*519 register/n8
*520 register/n9
*521 register/n20
*522 register/n22
*523 register/n24
*524 register/n26
*525 register/n28
*526 register/n40
*527 register/n41
*528 register/n49
*529 register/n50
*530 register/n53
*531 register/n316
*532 register/n317
*533 register/n318
*534 register/n319
*535 register/n320
*536 register/n326
*537 register/n327
*538 register/n328
*539 register/n329
*540 register/n330
*541 register/n336
*542 register/n337
*543 register/n338
*544 register/n339
*545 register/n340
*546 register/n346
*547 register/n347
*548 register/n348
*549 register/n349
*550 register/n350
*551 register/n356
*552 register/n357
*553 register/n358
*554 register/n359
*555 register/n360
*556 register/n361
*557 register/n362
*558 register/n363
*559 register/n364
*560 register/n365
*561 register/n366
*562 register/n367
*563 register/n368
*564 register/n374
*565 register/n375
*566 register/n378
*567 register/n380
*568 register/n381
*569 register/n382
*570 register/n383
*571 register/n384
*572 register/n385
*573 register/n386
*574 register/n387
*575 register/n388
*576 register/n389
*577 register/n390
*578 register/n391
*579 register/n392
*580 register/n393
*581 register/n394
*582 register/n395
*583 register/n396
*584 register/n397
*585 register/n398
*586 register/n399
*587 register/n400
*588 register/n401
*589 register/n402
*590 register/n403
*591 register/n404
*592 register/n405
*593 register/n406
*594 register/n407
*595 register/n408
*596 register/n409
*597 register/n410
*598 register/n411
*599 register/n412
*600 register/n413
*601 register/n414
*602 register/n415
*603 register/n416
*604 register/n417
*605 register/n418
*606 register/n419
*607 register/n420
*608 register/n421
*609 register/n422
*610 register/n423
*611 register/n424
*612 register/n425
*613 register/n426
*614 register/n427
*615 register/n428
*616 register/n429
*617 register/n430
*618 register/n431
*619 register/n432
*620 register/n433
*621 register/n434
*622 register/n435
*623 register/n436
*624 register/n437
*625 register/n438
*626 register/n439
*627 register/n440
*628 register/n441
*629 register/n442
*630 register/n443
*631 register/n444
*632 register/n445
*633 register/n446
*634 register/n447
*635 register/n448
*636 register/n449
*637 register/n450
*638 register/n451
*639 register/n452
*640 register/n453
*641 register/n455
*642 register/n457
*643 register/n459
*644 register/n461
*645 register/n462
*646 register/n463
*647 register/n464
*648 register/n465
*649 register/n466
*650 register/n467
*651 register/n468
*652 register/n472
*653 register/n473
*654 register/n474
*655 register/n475
*656 register/n476
*657 register/n477
*658 register/n480
*659 register/n481
*660 register/n484
*661 register/n485
*662 register/n486
*663 register/n487
*664 register/n490
*665 register/n491
*666 register/n494
*667 register/n495
*668 register/n496
*669 register/n497
*670 register/n500
*671 register/n501
*672 register/n504
*673 register/n505
*674 register/n506
*675 register/n507
*676 register/n510
*677 register/n511
*678 register/n514
*679 register/n515
*680 register/n516
*681 register/n517
*682 register/n520
*683 register/n521
*684 register/n524
*685 register/n525
*686 register/n526
*687 register/n527
*688 register/n530
*689 register/n531
*690 register/n534
*691 register/n535
*692 register/n536
*693 register/n537
*694 register/n540
*695 register/n541
*696 register/n544
*697 register/n545
*698 register/n546
*699 register/n547
*700 register/n554
*701 register/n555
*702 register/n556
*703 register/n557
*704 register/n558
*705 register/n559
*706 register/n562
*707 register/n563
*708 register/n565
*709 register/n566
*710 register/n586
*711 register/n587
*712 register/n588
*713 register/n589
*714 register/n590
*715 register/n591
*716 register/n592
*717 register/n593
*718 register/n594
*719 register/n603
*720 register/n604
*721 register/n605
*722 register/n606
*723 register/n607
*724 register/n608
*725 register/n609
*726 register/n610
*727 register/n612
*728 register/n613
*729 register/sregister[63]
*730 register/sregister[62]
*731 register/sregister[61]
*732 register/sregister[60]
*733 register/sregister[59]
*734 register/sregister[58]
*735 register/sregister[57]
*736 register/sregister[56]
*737 register/sregister[55]
*738 register/sregister[54]
*739 register/sregister[53]
*740 register/sregister[52]
*741 register/sregister[51]
*742 register/sregister[50]
*743 register/sregister[49]
*744 register/sregister[48]
*745 register/sregister[47]
*746 register/sregister[46]
*747 register/sregister[45]
*748 register/sregister[44]
*749 register/sregister[43]
*750 register/sregister[42]
*751 register/sregister[41]
*752 register/sregister[40]
*753 register/sregister[39]
*754 register/sregister[38]
*755 register/sregister[37]
*756 register/sregister[36]
*757 register/sregister[35]
*758 register/sregister[34]
*759 register/sregister[33]
*760 register/sregister[32]
*761 register/sregister[31]
*762 register/sregister[30]
*763 register/sregister[29]
*764 register/sregister[28]
*765 register/sregister[27]
*766 register/sregister[26]
*767 register/sregister[25]
*768 register/sregister[24]
*769 register/sregister[23]
*770 register/sregister[22]
*771 register/sregister[21]
*772 register/sregister[20]
*773 register/sregister[19]
*774 register/sregister[18]
*775 register/sregister[17]
*776 register/sregister[16]
*777 register/sregister[15]
*778 register/sregister[14]
*779 register/sregister[13]
*780 register/sregister[12]
*781 register/sregister[11]
*782 register/sregister[10]
*783 register/sregister[9]
*784 register/sregister[8]
*785 register/sregister[7]
*786 register/sregister[6]
*787 register/sregister[5]
*788 register/sregister[4]
*789 register/sregister[3]
*790 register/sregister[2]
*791 register/sregister[1]
*792 register/sregister[0]
*793 register/register[127]
*794 register/register[126]
*795 register/register[125]
*796 register/register[124]
*797 register/register[123]
*798 register/register[122]
*799 register/register[121]
*800 register/register[120]
*801 register/register[119]
*802 register/register[118]
*803 register/register[117]
*804 register/register[116]
*805 register/register[115]
*806 register/register[114]
*807 register/register[113]
*808 register/register[112]
*809 register/register[111]
*810 register/register[110]
*811 register/register[109]
*812 register/register[108]
*813 register/register[107]
*814 register/register[106]
*815 register/register[105]
*816 register/register[104]
*817 register/register[103]
*818 register/register[102]
*819 register/register[101]
*820 register/register[100]
*821 register/register[99]
*822 register/register[98]
*823 register/register[97]
*824 register/register[96]
*825 register/register[95]
*826 register/register[94]
*827 register/register[93]
*828 register/register[92]
*829 register/register[91]
*830 register/register[90]
*831 register/register[89]
*832 register/register[88]
*833 register/register[87]
*834 register/register[86]
*835 register/register[85]
*836 register/register[84]
*837 register/register[83]
*838 register/register[82]
*839 register/register[81]
*840 register/register[80]
*841 register/register[79]
*842 register/register[78]
*843 register/register[77]
*844 register/register[76]
*845 register/register[75]
*846 register/register[74]
*847 register/register[73]
*848 register/register[72]
*849 register/register[71]
*850 register/register[70]
*851 register/register[69]
*852 register/register[68]
*853 register/register[67]
*854 register/register[66]
*855 register/register[65]
*856 register/register[64]
*857 register/register[63]
*858 register/register[62]
*859 register/register[61]
*860 register/register[60]
*861 register/register[59]
*862 register/register[58]
*863 register/register[57]
*864 register/register[56]
*865 register/register[55]
*866 register/register[54]
*867 register/register[53]
*868 register/register[52]
*869 register/register[51]
*870 register/register[50]
*871 register/register[49]
*872 register/register[48]
*873 register/register[47]
*874 register/register[46]
*875 register/register[45]
*876 register/register[44]
*877 register/register[43]
*878 register/register[42]
*879 register/register[41]
*880 register/register[40]
*881 register/register[39]
*882 register/register[38]
*883 register/register[37]
*884 register/register[36]
*885 register/register[35]
*886 register/register[34]
*887 register/register[33]
*888 register/register[32]
*889 register/register[31]
*890 register/register[30]
*891 register/register[29]
*892 register/register[28]
*893 register/register[27]
*894 register/register[26]
*895 register/register[25]
*896 register/register[24]
*897 register/register[23]
*898 register/register[22]
*899 register/register[21]
*900 register/register[20]
*901 register/register[19]
*902 register/register[18]
*903 register/register[17]
*904 register/register[16]
*905 register/register[15]
*906 register/register[14]
*907 register/register[13]
*908 register/register[12]
*909 register/register[11]
*910 register/register[10]
*911 register/register[9]
*912 register/register[8]
*913 register/register[7]
*914 register/register[6]
*915 register/register[5]
*916 register/register[4]
*917 register/register[3]
*918 register/register[2]
*919 register/register[1]
*920 register/register[0]
*921 control/PCSrc_o0
*922 control/n13
*923 control/n14
*924 control/n15
*925 control/n16
*926 control/n17
*927 control/n18
*928 control/n19
*929 control/n20
*930 control/n21
*931 control/n22
*932 control/n23
*933 control/n24
*934 control/n25
*935 control/n26
*936 control/n27
*937 control/n28
*938 control/n29
*939 control/n3
*940 control/n4
*941 control/n5
*942 control/n6
*943 control/n7
*944 control/n8
*945 control/n9
*946 control/n10
*947 control/n11
*948 muxBranch/n10
*949 muxBranch/n11
*950 muxBranch/n12
*951 muxBranch/n13
*952 muxBranch/n14
*953 muxBranch/n15
*954 muxBranch/n16
*955 muxBranch/n17
*956 immgen/n18
*957 immgen/n19
*958 immgen/n20
*959 immgen/n25
*960 immgen/n26
*961 immgen/n1
*962 immgen/n5
*963 muxhazard/n7
*964 muxEX_top/n2
*965 muxEX_top/n3
*966 muxEX_top/n4
*967 muxEX_top/n5
*968 muxEX_top/n6
*969 muxEX_top/n7
*970 muxEX_top/n8
*971 muxEX_top/n9
*972 muxEX_top/n10
*973 muxEX_top/n11
*974 muxEX_top/n12
*975 muxEX_top/n13
*976 muxEX_top/n14
*977 muxEX_top/n15
*978 muxEX_top/n16
*979 muxEX_top/n17
*980 muxEX_top/n18
*981 muxEX_top/n19
*982 muxEX_top/n20
*983 muxEX_top/n21
*984 muxEX_top/n1
*985 muxEX_Bottom/n1
*986 muxEX_Bottom/n22
*987 muxEX_Bottom/n23
*988 muxEX_Bottom/n24
*989 muxEX_Bottom/n25
*990 muxEX_Bottom/n26
*991 muxEX_Bottom/n27
*992 muxEX_Bottom/n28
*993 muxEX_Bottom/n29
*994 muxEX_Bottom/n30
*995 muxEX_Bottom/n31
*996 muxEX_Bottom/n32
*997 muxEX_Bottom/n33
*998 muxEX_Bottom/n34
*999 muxEX_Bottom/n35
*1000 muxEX_Bottom/n36
*1001 muxEX_Bottom/n37
*1002 muxEX_Bottom/n38
*1003 muxEX_Bottom/n39
*1004 muxEX_Bottom/n40
*1005 muxEX_Bottom/n41
*1006 IDEX/N12
*1007 IDEX/N13
*1008 IDEX/N14
*1009 IDEX/N17
*1010 IDEX/N19
*1011 IDEX/N23
*1012 IDEX/N24
*1013 IDEX/N27
*1014 IDEX/N28
*1015 IDEX/N29
*1016 IDEX/N35
*1017 IDEX/N36
*1018 IDEX/N37
*1019 IDEX/N38
*1020 IDEX/N39
*1021 IDEX/N40
*1022 IDEX/N41
*1023 IDEX/N42
*1024 IDEX/N43
*1025 IDEX/N44
*1026 IDEX/N45
*1027 IDEX/N46
*1028 IDEX/N47
*1029 IDEX/N48
*1030 IDEX/N49
*1031 IDEX/N50
*1032 IDEX/N65
*1033 IDEX/N66
*1034 IDEX/N68
*1035 IDEX/N69
*1036 IDEX/N70
*1037 IDEX/N71
*1038 IDEX/N72
*1039 IDEX/N74
*1040 IDEX/N75
*1041 IDEX/N76
*1042 IDEX/N77
*1043 IDEX/n22
*1044 alumux/n1
*1045 alumux/n3
*1046 alumux/n4
*1047 alumux/n5
*1048 alumux/n8
*1049 alumux/n9
*1050 regdstmux/n9
*1051 regdstmux/n10
*1052 regdstmux/n11
*1053 regdstmux/n1
*1054 ALU/N93
*1055 ALU/N94
*1056 ALU/N95
*1057 ALU/N96
*1058 ALU/N97
*1059 ALU/N98
*1060 ALU/N99
*1061 ALU/N100
*1062 ALU/N101
*1063 ALU/N102
*1064 ALU/N103
*1065 ALU/N104
*1066 ALU/N105
*1067 ALU/N106
*1068 ALU/N107
*1069 ALU/N108
*1070 ALU/N217
*1071 ALU/N218
*1072 ALU/N219
*1073 ALU/N220
*1074 ALU/N221
*1075 ALU/N222
*1076 ALU/N223
*1077 ALU/N225
*1078 ALU/N226
*1079 ALU/N227
*1080 ALU/N228
*1081 ALU/N229
*1082 ALU/N230
*1083 ALU/N231
*1084 ALU/N232
*1085 ALU/N233
*1086 ALU/N234
*1087 ALU/N258
*1088 ALU/N276
*1089 ALU/N277
*1090 ALU/N278
*1091 ALU/N279
*1092 ALU/N280
*1093 ALU/N281
*1094 ALU/N282
*1095 ALU/N283
*1096 ALU/N284
*1097 ALU/n63
*1098 ALU/n64
*1099 ALU/n65
*1100 ALU/n66
*1101 ALU/n67
*1102 ALU/n68
*1103 ALU/n69
*1104 ALU/n70
*1105 ALU/n71
*1106 ALU/n72
*1107 ALU/n74
*1108 ALU/n76
*1109 ALU/n80
*1110 ALU/n81
*1111 ALU/n82
*1112 ALU/n83
*1113 ALU/n84
*1114 ALU/n85
*1115 ALU/n86
*1116 ALU/n90
*1117 ALU/n91
*1118 ALU/n92
*1119 ALU/n93
*1120 ALU/n94
*1121 ALU/n95
*1122 ALU/n96
*1123 ALU/n97
*1124 ALU/n100
*1125 ALU/n101
*1126 ALU/n102
*1127 ALU/n103
*1128 ALU/n104
*1129 ALU/n105
*1130 ALU/n106
*1131 ALU/n107
*1132 ALU/n110
*1133 ALU/n111
*1134 ALU/n112
*1135 ALU/n113
*1136 ALU/n114
*1137 ALU/n115
*1138 ALU/n116
*1139 ALU/n117
*1140 ALU/n120
*1141 ALU/n121
*1142 ALU/n122
*1143 ALU/n123
*1144 ALU/n124
*1145 ALU/n125
*1146 ALU/n126
*1147 ALU/n127
*1148 ALU/n130
*1149 ALU/n131
*1150 ALU/n132
*1151 ALU/n133
*1152 ALU/n134
*1153 ALU/n135
*1154 ALU/n136
*1155 ALU/n137
*1156 ALU/n140
*1157 ALU/n141
*1158 ALU/n143
*1159 ALU/n144
*1160 ALU/n145
*1161 ALU/n146
*1162 ALU/n147
*1163 ALU/n148
*1164 ALU/n149
*1165 ALU/n150
*1166 ALU/n151
*1167 ALU/n152
*1168 ALU/n154
*1169 ALU/n155
*1170 ALU/n156
*1171 ALU/n167
*1172 ALU/n169
*1173 ALU/n170
*1174 ALU/n171
*1175 ALU/n172
*1176 ALU/n173
*1177 ALU/n175
*1178 ALU/n176
*1179 ALU/n179
*1180 ALU/n180
*1181 ALU/n2
*1182 ALU/n7
*1183 ALU/n8
*1184 ALU/n9
*1185 ALU/n10
*1186 ALU/n11
*1187 ALU/n12
*1188 ALU/n13
*1189 ALU/n14
*1190 ALU/n15
*1191 ALU/n16
*1192 ALU/n17
*1193 ALU/n18
*1194 ALU/n19
*1195 ALU/n20
*1196 ALU/n21
*1197 ALU/n22
*1198 ALU/n23
*1199 ALU/n24
*1200 ALU/n25
*1201 ALU/n26
*1202 ALU/n27
*1203 ALU/n28
*1204 ALU/n29
*1205 ALU/n30
*1206 ALU/n31
*1207 ALU/n32
*1208 ALU/n33
*1209 ALU/n34
*1210 ALU/n35
*1211 ALU/n36
*1212 ALU/n38
*1213 ALU/n39
*1214 ALU/n40
*1215 ALU/n41
*1216 ALU/n42
*1217 ALU/n43
*1218 ALU/n44
*1219 ALU/n45
*1220 ALU/n46
*1221 ALU/n47
*1222 ALU/n49
*1223 ALU/n51
*1224 ALU/n58
*1225 ALU/n59
*1226 ALU/n60
*1227 ALU/n174
*1228 ALU/n187
*1229 ALU/n188
*1230 ALU/n189
*1231 ALU/n190
*1232 ALU/n191
*1233 ALU/n192
*1234 ALU/n193
*1235 ALU/n194
*1236 ALU/n195
*1237 ALU/n196
*1238 ALU/n197
*1239 ALU/n198
*1240 ALU/n199
*1241 ALU/n200
*1242 ALU/n201
*1243 ALU/n202
*1244 ALU/n203
*1245 ALU/n204
*1246 ALU/n205
*1247 ALU/n206
*1248 ALU/n210
*1249 ALU/n211
*1250 ALU/n212
*1251 ALU/n213
*1252 ALU/n214
*1253 ALU/n215
*1254 ALU/n216
*1255 ALU/n217
*1256 ALU/n218
*1257 ALU/n219
*1258 ALU/n220
*1259 ALU/n221
*1260 ALU/n222
*1261 ALU/n223
*1262 ALU/n224
*1263 ALU/n225
*1264 ALU/n226
*1265 ALU/n227
*1266 ALU/n228
*1267 ALU/n229
*1268 ALU/n230
*1269 ALU/n231
*1270 ALU/n232
*1271 ALU/n233
*1272 ALU/n234
*1273 ALU/n235
*1274 ALU/n236
*1275 ALU/n237
*1276 ALU/n241
*1277 ALU/n242
*1278 ALU/n243
*1279 ALU/n244
*1280 ALU/n245
*1281 ALU/n246
*1282 ALU/n247
*1283 ALU/n248
*1284 ALU/n249
*1285 ALU/n250
*1286 ALU/n251
*1287 ALU/n252
*1288 ALU/n253
*1289 ALU/n254
*1290 ALU/n255
*1291 ALU/n256
*1292 ALU/n257
*1293 ALU/n258
*1294 ALU/r399/n2
*1295 ALU/r399/n6
*1296 ALU/r399/n7
*1297 ALU/r399/carry[7]
*1298 ALU/r399/carry[6]
*1299 ALU/r399/carry[5]
*1300 ALU/r399/carry[4]
*1301 ALU/r399/carry[3]
*1302 ALU/r399/carry[2]
*1303 ALU/r399/carry[1]
*1304 ALU/r398/n1
*1305 ALU/r398/carry[7]
*1306 ALU/r398/carry[6]
*1307 ALU/r398/carry[5]
*1308 ALU/r398/carry[4]
*1309 ALU/r398/carry[3]
*1310 ALU/r398/carry[2]
*1311 forward/n18
*1312 forward/n19
*1313 forward/n20
*1314 forward/n22
*1315 forward/n24
*1316 forward/n25
*1317 forward/n27
*1318 forward/n28
*1319 forward/n31
*1320 forward/n32
*1321 forward/n33
*1322 forward/n34
*1323 forward/n35
*1324 forward/n36
*1325 forward/n39
*1326 forward/n40
*1327 forward/n41
*1328 forward/n42
*1329 forward/n43
*1330 forward/n46
*1331 forward/n47
*1332 forward/n1
*1333 data_mem/N48
*1334 data_mem/N49
*1335 data_mem/N50
*1336 data_mem/N51
*1337 data_mem/N52
*1338 data_mem/N53
*1339 data_mem/N54
*1340 data_mem/N55
*1341 data_mem/n2
*1342 data_mem/n12
*1343 data_mem/n13
*1344 data_mem/n14
*1345 data_mem/n16
*1346 data_mem/n18
*1347 data_mem/n20
*1348 data_mem/n22
*1349 data_mem/n24
*1350 data_mem/n26
*1351 data_mem/n28
*1352 data_mem/n30
*1353 data_mem/n32
*1354 data_mem/n34
*1355 data_mem/n36
*1356 data_mem/n38
*1357 data_mem/n40
*1358 data_mem/n42
*1359 data_mem/n44
*1360 data_mem/n46
*1361 data_mem/n48
*1362 data_mem/n50
*1363 data_mem/n52
*1364 data_mem/n54
*1365 data_mem/n56
*1366 data_mem/n58
*1367 data_mem/n60
*1368 data_mem/n62
*1369 data_mem/n64
*1370 data_mem/n66
*1371 data_mem/n68
*1372 data_mem/n70
*1373 data_mem/n72
*1374 data_mem/n75
*1375 data_mem/n85
*1376 data_mem/n86
*1377 data_mem/n88
*1378 data_mem/n89
*1379 data_mem/n90
*1380 data_mem/n91
*1381 data_mem/n93
*1382 data_mem/n94
*1383 data_mem/n95
*1384 data_mem/n97
*1385 data_mem/n99
*1386 data_mem/n101
*1387 data_mem/n102
*1388 data_mem/n104
*1389 data_mem/n105
*1390 data_mem/n107
*1391 data_mem/n109
*1392 data_mem/n111
*1393 data_mem/n112
*1394 data_mem/n114
*1395 data_mem/n115
*1396 data_mem/n117
*1397 data_mem/n119
*1398 data_mem/n121
*1399 data_mem/n122
*1400 data_mem/n123
*1401 data_mem/n125
*1402 data_mem/n126
*1403 data_mem/n128
*1404 data_mem/n130
*1405 data_mem/n132
*1406 data_mem/n133
*1407 data_mem/n137
*1408 data_mem/n138
*1409 data_mem/n140
*1410 data_mem/n142
*1411 data_mem/n144
*1412 data_mem/n146
*1413 data_mem/n147
*1414 data_mem/n149
*1415 data_mem/n151
*1416 data_mem/n153
*1417 data_mem/n155
*1418 data_mem/n156
*1419 data_mem/n160
*1420 data_mem/n162
*1421 data_mem/n164
*1422 data_mem/n166
*1423 data_mem/n167
*1424 data_mem/n168
*1425 data_mem/n169
*1426 data_mem/n170
*1427 data_mem/n171
*1428 data_mem/n172
*1429 data_mem/n173
*1430 data_mem/n174
*1431 data_mem/n175
*1432 data_mem/n176
*1433 data_mem/n177
*1434 data_mem/n178
*1435 data_mem/n179
*1436 data_mem/n180
*1437 data_mem/n181
*1438 data_mem/n182
*1439 data_mem/n183
*1440 data_mem/n184
*1441 data_mem/n185
*1442 data_mem/n186
*1443 data_mem/n187
*1444 data_mem/n188
*1445 data_mem/n189
*1446 data_mem/n190
*1447 data_mem/n191
*1448 data_mem/n192
*1449 data_mem/n193
*1450 data_mem/n194
*1451 data_mem/n195
*1452 data_mem/n196
*1453 data_mem/n197
*1454 data_mem/n198
*1455 data_mem/n199
*1456 data_mem/n200
*1457 data_mem/n201
*1458 data_mem/n202
*1459 data_mem/n203
*1460 data_mem/n204
*1461 data_mem/n205
*1462 data_mem/n206
*1463 data_mem/n207
*1464 data_mem/n208
*1465 data_mem/n209
*1466 data_mem/n210
*1467 data_mem/n211
*1468 data_mem/n212
*1469 data_mem/n213
*1470 data_mem/n214
*1471 data_mem/n215
*1472 data_mem/n216
*1473 data_mem/n217
*1474 data_mem/n218
*1475 data_mem/n219
*1476 data_mem/n220
*1477 data_mem/n221
*1478 data_mem/n222
*1479 data_mem/n223
*1480 data_mem/n224
*1481 data_mem/n225
*1482 data_mem/n226
*1483 data_mem/n227
*1484 data_mem/n228
*1485 data_mem/n229
*1486 data_mem/n230
*1487 data_mem/n231
*1488 data_mem/n232
*1489 data_mem/n233
*1490 data_mem/n234
*1491 data_mem/n235
*1492 data_mem/n236
*1493 data_mem/n237
*1494 data_mem/n238
*1495 data_mem/n239
*1496 data_mem/n240
*1497 data_mem/n241
*1498 data_mem/n242
*1499 data_mem/n243
*1500 data_mem/n244